FoamFile
{
    version 2.0;
    format ascii;
    class dictionary;
    location "system";
    object controlDict;
}
application icoFoam;
startFrom startTime;
startTime 0;
endTime 10;
deltaT 0.001;
writeControl timeStep;
writeInterval 200;
purgeWrite 0;
