FoamFile
{
    version 2.0;
    format ascii;
    class dictionary;
    location "constant";
    object turbulenceProperties;
}
simulationType laminar; // 乱流モデルの選択：laminar = 層流（乱流モデルは使わない）
